Version 4
SHEET 1 2276 728
WIRE 752 -752 656 -752
WIRE 656 -720 656 -752
WIRE 608 -704 480 -704
WIRE 624 -704 608 -704
WIRE 656 -704 656 -720
WIRE 832 -688 832 -784
WIRE 480 -656 480 -704
WIRE 880 -640 832 -640
WIRE 752 -608 752 -752
WIRE 784 -608 752 -608
WIRE 800 -608 784 -608
WIRE 832 -576 832 -592
WIRE 832 -544 832 -576
WIRE 880 -544 880 -640
WIRE 880 -544 832 -544
WIRE 1360 -544 1280 -544
WIRE 1040 -528 976 -528
WIRE 1456 -528 1408 -528
WIRE 1280 -496 1280 -544
WIRE 1040 -464 1040 -528
WIRE 1280 -464 1280 -496
WIRE 1408 -464 1408 -528
WIRE 1040 -448 1040 -464
WIRE 1408 -448 1408 -464
WIRE 976 -272 976 -528
WIRE 1392 -272 976 -272
WIRE 832 -224 832 -544
WIRE -368 -176 -624 -176
WIRE -32 -176 -288 -176
WIRE 320 -176 112 -176
WIRE 608 -176 400 -176
WIRE 832 -128 832 -160
WIRE 1296 -48 1216 -48
WIRE 1792 0 1776 0
WIRE 2032 0 1792 0
WIRE 1792 16 1776 16
WIRE 1856 16 1792 16
WIRE 1456 32 1456 -528
WIRE 1488 32 1456 32
WIRE 1504 32 1488 32
WIRE 1792 48 1776 48
WIRE 1984 48 1792 48
WIRE 1248 64 1232 64
WIRE 1296 64 1296 -48
WIRE 1296 64 1248 64
WIRE 1392 64 1392 -272
WIRE 1488 64 1392 64
WIRE 1504 64 1488 64
WIRE 1792 80 1776 80
WIRE 1968 80 1792 80
WIRE 1232 96 1232 64
WIRE 1248 96 1248 64
WIRE 1360 96 1360 -544
WIRE 1488 96 1360 96
WIRE 1504 96 1488 96
WIRE 1200 112 976 112
WIRE 1216 112 1200 112
WIRE 1792 112 1776 112
WIRE 1968 112 1792 112
WIRE 1984 112 1968 112
WIRE 1440 128 1264 128
WIRE 1488 128 1440 128
WIRE 1504 128 1488 128
WIRE 880 144 880 -544
WIRE 1200 144 880 144
WIRE 1216 144 1200 144
WIRE 1792 144 1760 144
WIRE 1984 144 1792 144
WIRE -1568 192 -1760 192
WIRE -1440 192 -1568 192
WIRE -1264 192 -1360 192
WIRE -1200 192 -1264 192
WIRE -1024 192 -1120 192
WIRE -928 192 -1024 192
WIRE -736 192 -848 192
WIRE -624 192 -624 -176
WIRE -624 192 -736 192
WIRE -416 192 -624 192
WIRE 1440 192 1440 128
WIRE -32 208 -32 -176
WIRE -32 208 -352 208
WIRE 0 208 -32 208
WIRE 112 208 112 -176
WIRE 112 208 80 208
WIRE 288 208 112 208
WIRE -416 224 -480 224
WIRE 608 224 608 -176
WIRE 608 224 352 224
WIRE 976 224 976 112
WIRE 976 224 608 224
WIRE 288 240 208 240
WIRE -1760 256 -1760 192
WIRE -1568 256 -1568 192
WIRE -1264 256 -1264 192
WIRE -1024 256 -1024 192
WIRE -736 256 -736 192
WIRE -480 256 -480 224
WIRE 208 272 208 240
WIRE -1760 416 -1760 336
FLAG -1760 416 0
FLAG -480 256 0
FLAG -384 96 0
FLAG -384 320 0
FLAG 208 272 0
FLAG 320 112 0
FLAG 320 336 0
FLAG 1408 -384 0
FLAG 1216 160 0
FLAG 1248 160 0
FLAG 1232 160 0
FLAG 1216 32 0
FLAG -1568 336 sar_out.0
FLAG -1264 336 sar_out.1
FLAG -1024 336 sar_out.2
FLAG -736 336 sar_out.3
FLAG 832 -864 0
FLAG 832 -128 0
FLAG 832 -576 Vout
FLAG 1440 256 0
FLAG 1936 16 0
FLAG 1040 -384 0
FLAG 1280 -416 0
FLAG 1984 48 sar_out.3
FLAG 1968 80 sar_out.2
FLAG 1968 112 sar_out.1
FLAG 1984 144 sar_out.0
FLAG 2032 0 sample_enable
FLAG 480 -656 sample_enable
FLAG 608 -656 0
FLAG 656 -640 0
DATAFLAG -624 192 ""
DATAFLAG -32 208 ""
DATAFLAG -1024 192 ""
DATAFLAG -1264 192 ""
DATAFLAG -1568 192 ""
DATAFLAG -32 208 ""
DATAFLAG -32 208 ""
DATAFLAG 880 144 ""
SYMBOL res -1776 240 R0
SYMATTR InstName R1
SYMATTR Value 20k
SYMBOL res -1584 240 R0
SYMATTR InstName R2
SYMATTR Value 20k
SYMBOL res -1344 176 R90
WINDOW 0 0 56 VBottom 2
WINDOW 3 32 56 VTop 2
SYMATTR InstName R3
SYMATTR Value 10k
SYMBOL res -1248 352 R180
WINDOW 0 36 76 Left 2
WINDOW 3 36 40 Left 2
SYMATTR InstName R4
SYMATTR Value 20k
SYMBOL res -1216 208 R270
WINDOW 0 32 56 VTop 2
WINDOW 3 0 56 VBottom 2
SYMATTR InstName R5
SYMATTR Value 10k
SYMBOL res -1040 240 R0
SYMATTR InstName R6
SYMATTR Value 20k
SYMBOL res -832 176 R90
WINDOW 0 0 56 VBottom 2
WINDOW 3 32 56 VTop 2
SYMATTR InstName R7
SYMATTR Value 10k
SYMBOL res -720 352 R180
WINDOW 0 36 76 Left 2
WINDOW 3 36 40 Left 2
SYMATTR InstName R8
SYMATTR Value 20k
SYMBOL voltage -384 192 R180
WINDOW 0 24 96 Left 2
WINDOW 3 24 16 Left 2
SYMATTR InstName VCC1
SYMATTR Value 20
SYMBOL voltage -384 336 R180
WINDOW 0 24 96 Left 2
WINDOW 3 24 16 Left 2
SYMATTR InstName VCC2
SYMATTR Value 20
SYMBOL res -272 -192 R90
WINDOW 0 0 56 VBottom 2
WINDOW 3 32 56 VTop 2
SYMATTR InstName Rf1
SYMATTR Value 10k
SYMBOL voltage 320 208 R180
WINDOW 0 24 96 Left 2
WINDOW 3 24 16 Left 2
SYMATTR InstName V5
SYMATTR Value 20
SYMBOL voltage 320 352 R180
WINDOW 0 24 96 Left 2
WINDOW 3 24 16 Left 2
SYMATTR InstName V6
SYMATTR Value 20
SYMBOL res 96 192 R90
WINDOW 0 0 56 VBottom 2
WINDOW 3 32 56 VTop 2
SYMATTR InstName R9
SYMATTR Value 10k
SYMBOL res 416 -192 R90
WINDOW 0 0 56 VBottom 2
WINDOW 3 32 56 VTop 2
SYMATTR InstName R10
SYMATTR Value 10k
SYMBOL AutoGenerated\\sar_fsm_4bit 1632 80 R0
SYMATTR InstName U4
SYMBOL Comparators\\LT1719 1232 64 R0
SYMATTR InstName U5
SYMBOL voltage 1216 -64 R0
WINDOW 123 0 0 Left 0
WINDOW 39 0 0 Left 0
SYMATTR InstName V14
SYMATTR Value 5
SYMBOL nmos4 784 -688 R0
SYMATTR InstName M1
SYMATTR Value2 l=0.18u w=100u m=1
SYMBOL voltage 832 -768 R180
WINDOW 0 24 96 Left 2
WINDOW 3 24 16 Left 2
WINDOW 123 0 0 Left 0
WINDOW 39 0 0 Left 0
SYMATTR InstName Vin1
SYMATTR Value 3.1
SYMBOL cap 816 -224 R0
SYMATTR InstName C1
SYMATTR Value 4n
SYMBOL OpAmps\\UniversalOpAmp -384 208 R0
SYMATTR InstName U1
SYMBOL OpAmps\\UniversalOpAmp 320 224 R0
SYMATTR InstName U2
SYMBOL cap 1424 192 R0
SYMATTR InstName C2
SYMATTR Value 1n
SYMBOL res 1952 0 R90
WINDOW 0 0 56 VBottom 2
WINDOW 3 32 56 VTop 2
SYMATTR InstName R11
SYMATTR Value 100k
SYMBOL voltage 1040 -480 R0
WINDOW 123 0 0 Left 0
WINDOW 39 0 0 Left 0
SYMATTR InstName V2
SYMATTR Value PULSE(0 3.3 10n 1n 1n 1u 100m)
SYMBOL voltage 1280 -512 R0
WINDOW 123 0 0 Left 0
WINDOW 39 0 0 Left 0
SYMATTR InstName V3
SYMATTR Value PULSE(0 3.3 2u 1n 1n 1u 100m)
SYMBOL voltage 1408 -480 R0
WINDOW 123 0 0 Left 0
WINDOW 39 0 0 Left 0
SYMATTR InstName V4
SYMATTR Value PULSE(0 3.3 0 1n 1n 500n 1u)
SYMBOL e 656 -736 R0
SYMATTR InstName E1
SYMATTR Value 1.5
TEXT -1776 440 Left 2 !.tran 0 30u
TEXT 1600 -144 Left 2 !.options cshunt=1e-15 gmin=1e-12
