Version 4
SHEET 1 880 680
WIRE 288 0 208 0
WIRE 240 112 224 112
WIRE 288 112 288 0
WIRE 288 112 240 112
WIRE 144 128 -96 128
WIRE 224 144 224 112
WIRE 240 144 240 112
WIRE 144 160 144 128
WIRE 192 160 144 160
WIRE 336 176 256 176
WIRE 192 192 96 192
WIRE 96 208 96 192
WIRE 96 208 -32 208
FLAG -32 288 0
FLAG -96 208 0
FLAG 208 208 0
FLAG 240 208 0
FLAG 224 208 0
FLAG 208 80 0
SYMBOL voltage -32 192 R0
WINDOW 123 0 0 Left 0
WINDOW 39 0 0 Left 0
SYMATTR InstName V2
SYMATTR Value 2.11
SYMBOL Comparators\\LT1719 224 112 R0
SYMATTR InstName U1
SYMBOL voltage -96 112 R0
WINDOW 123 0 0 Left 0
WINDOW 39 0 0 Left 0
SYMATTR InstName V3
SYMATTR Value 2
SYMBOL voltage 208 -16 R0
WINDOW 123 0 0 Left 0
WINDOW 39 0 0 Left 0
SYMATTR InstName V1
SYMATTR Value 3.3
TEXT -64 312 Left 2 !.tran 10
